autotest/autotest/test_R4-12.47-2_NR.glm
// $Id: R4-12.47-2.glm
// 12.5 kV feeder
//*********************************************
// validates voltages with NR at selected load, node, meter, triplex_node, and
// triplex_meter objects
//
// written by alek332
clock{
	timezone EST+5EDT;
	timestamp '2000-01-01 0:00:00';
	stoptime '2000-01-01 1:00:00';
}

//#set profiler=1
//*********************************************
// modules

module assert;
module tape;
module powerflow{
	solver_method NR;
	default_maximum_voltage_error 1e-9;
};
//*********************************************

object regulator:1595 {
	name R4-12-47-2_reg_1;
	from R4-12-47-2_node_273;
	to R4-12-47-2_meter_22;
	phases ABCN;
	configuration regulator_configuration:1596;
	object recorder {
		 property tap_A,tap_B,tap_C,power_in_A.real,power_in_A.imag,power_in_B.real,power_in_B.imag,power_in_C.real,power_in_C.imag,power_in.real,power_in.imag;
		 limit 144;
		 interval 60;
		 file "R4-12.27-2_reg_output.csv";
	};
}


object regulator_configuration:1596 {
	name feeder_reg_cfg;
	Control OUTPUT_VOLTAGE;
	band_center 7216.0;
	band_width 120;
	connect_type WYE_WYE;
	time_delay 30;
	raise_taps 16;
	lower_taps 16;
	regulation 0.10;
	tap_pos_A 0;
	tap_pos_B 0;
	tap_pos_C 0;
}


object fuse:1551 {
	name R4-12-47-2_fuse_1;
	phases AN;
	from R4-12-47-2_node_234;
	to R4-12-47-2_node_85;
	current_limit 75;
	status CLOSED;
}

object fuse:1552 {
	name R4-12-47-2_fuse_2;
	phases AN;
	from R4-12-47-2_node_45;
	to R4-12-47-2_node_79;
	current_limit 75;
	status CLOSED;
}

object fuse:1553 {
	name R4-12-47-2_fuse_3;
	phases CN;
	from R4-12-47-2_node_257;
	to R4-12-47-2_node_78;
	current_limit 50;
	status CLOSED;
}

object fuse:1554 {
	name R4-12-47-2_fuse_4;
	phases BN;
	from R4-12-47-2_node_44;
	to R4-12-47-2_node_80;
	current_limit 75;
	status CLOSED;
}

object fuse:1555 {
	name R4-12-47-2_fuse_5;
	phases BN;
	from R4-12-47-2_node_43;
	to R4-12-47-2_node_81;
	current_limit 75;
	status CLOSED;
}

object fuse:1556 {
	name R4-12-47-2_fuse_6;
	phases ABCN;
	from R4-12-47-2_node_230;
	to R4-12-47-2_node_82;
	current_limit 75;
	status CLOSED;
}

object fuse:1557 {
	name R4-12-47-2_fuse_7;
	phases BCN;
	from R4-12-47-2_node_15;
	to R4-12-47-2_node_84;
	current_limit 75;
	status CLOSED;
}

object fuse:1558 {
	name R4-12-47-2_fuse_8;
	phases CN;
	from R4-12-47-2_node_47;
	to R4-12-47-2_node_88;
	current_limit 30;
	status CLOSED;
}

object fuse:1559 {
	name R4-12-47-2_fuse_9;
	phases CN;
	from R4-12-47-2_node_110;
	to R4-12-47-2_node_89;
	current_limit 75;
	status CLOSED;
}

object fuse:1560 {
	name R4-12-47-2_fuse_10;
	phases CN;
	from R4-12-47-2_node_33;
	to R4-12-47-2_node_90;
	current_limit 75;
	status CLOSED;
}

object fuse:1561 {
	name R4-12-47-2_fuse_11;
	phases ACN;
	from R4-12-47-2_node_12;
	to R4-12-47-2_node_91;
	current_limit 75;
	status CLOSED;
}

object fuse:1562 {
	name R4-12-47-2_fuse_12;
	phases CN;
	from R4-12-47-2_node_53;
	to R4-12-47-2_node_71;
	current_limit 50;
	status CLOSED;
}

object fuse:1563 {
	name R4-12-47-2_fuse_13;
	phases AN;
	from R4-12-47-2_node_9;
	to R4-12-47-2_node_72;
	current_limit 75;
	status CLOSED;
}

object fuse:1564 {
	name R4-12-47-2_fuse_14;
	phases AN;
	from R4-12-47-2_node_9;
	to R4-12-47-2_node_87;
	current_limit 75;
	status CLOSED;
}

object fuse:1565 {
	name R4-12-47-2_fuse_15;
	phases BN;
	from R4-12-47-2_node_10;
	to R4-12-47-2_node_73;
	current_limit 75;
	status CLOSED;
}

object fuse:1566 {
	name R4-12-47-2_fuse_16;
	phases AN;
	from R4-12-47-2_node_10;
	to R4-12-47-2_node_74;
	current_limit 75;
	status CLOSED;
}

object fuse:1567 {
	name R4-12-47-2_fuse_17;
	phases BN;
	from R4-12-47-2_node_17;
	to R4-12-47-2_node_75;
	current_limit 60;
	status CLOSED;
}

object fuse:1568 {
	name R4-12-47-2_fuse_18;
	phases CN;
	from R4-12-47-2_node_17;
	to R4-12-47-2_node_76;
	current_limit 60;
	status CLOSED;
}

object fuse:1569 {
	name R4-12-47-2_fuse_19;
	phases AN;
	from R4-12-47-2_node_24;
	to R4-12-47-2_node_92;
	current_limit 75;
	status CLOSED;
}

object fuse:1570 {
	name R4-12-47-2_fuse_20;
	phases ABCN;
	from R4-12-47-2_node_24;
	to R4-12-47-2_node_93;
	current_limit 75;
	status CLOSED;
}

object fuse:1571 {
	name R4-12-47-2_fuse_21;
	phases ABCN;
	from R4-12-47-2_node_25;
	to R4-12-47-2_node_94;
	current_limit 75;
	status CLOSED;
}

object fuse:1572 {
	name R4-12-47-2_fuse_22;
	phases AN;
	from R4-12-47-2_node_25;
	to R4-12-47-2_node_95;
	current_limit 75;
	status CLOSED;
}

object fuse:1573 {
	name R4-12-47-2_fuse_23;
	phases BN;
	from R4-12-47-2_node_11;
	to R4-12-47-2_node_96;
	current_limit 75;
	status CLOSED;
}

object fuse:1574 {
	name R4-12-47-2_fuse_24;
	phases BN;
	from R4-12-47-2_node_11;
	to R4-12-47-2_node_97;
	current_limit 75;
	status CLOSED;
}

object fuse:1575 {
	name R4-12-47-2_fuse_25;
	phases BN;
	from R4-12-47-2_node_10;
	to R4-12-47-2_node_70;
	current_limit 80;
	status CLOSED;
}

object fuse:1576 {
	name R4-12-47-2_fuse_26;
	phases AN;
	from R4-12-47-2_node_41;
	to R4-12-47-2_node_77;
	current_limit 80;
	status CLOSED;
}

object fuse:1577 {
	name R4-12-47-2_fuse_27;
	phases BN;
	from R4-12-47-2_node_41;
	to R4-12-47-2_node_83;
	current_limit 80;
	status CLOSED;
}

object fuse:1578 {
	name R4-12-47-2_fuse_28;
	phases CN;
	from R4-12-47-2_node_41;
	to R4-12-47-2_node_86;
	current_limit 80;
	status CLOSED;
}


object line_configuration:26 {
	conductor_C overhead_line_conductor:2;
	conductor_N overhead_line_conductor:2;
	spacing line_spacing:11;
}

object line_configuration:27 {
	conductor_C overhead_line_conductor:3;
	conductor_N overhead_line_conductor:3;
	spacing line_spacing:11;
}

object line_configuration:28 {
	conductor_C overhead_line_conductor:4;
	conductor_N overhead_line_conductor:4;
	spacing line_spacing:11;
}

object line_configuration:29 {
	conductor_A overhead_line_conductor:2;
	conductor_N overhead_line_conductor:2;
	spacing line_spacing:12;
}

object line_configuration:30 {
	conductor_A overhead_line_conductor:2;
	conductor_B overhead_line_conductor:2;
	conductor_N overhead_line_conductor:2;
	spacing line_spacing:13;
}

object line_configuration:31 {
	conductor_A overhead_line_conductor:2;
	conductor_B overhead_line_conductor:2;
	conductor_N overhead_line_conductor:2;
	spacing line_spacing:14;
}

object line_configuration:32 {
	conductor_B overhead_line_conductor:2;
	conductor_N overhead_line_conductor:2;
	spacing line_spacing:15;
}

object line_configuration:33 {
	conductor_A overhead_line_conductor:3;
	conductor_B overhead_line_conductor:3;
	conductor_C overhead_line_conductor:3;
	conductor_N overhead_line_conductor:3;
	spacing line_spacing:16;
}

object line_configuration:34 {
	conductor_B overhead_line_conductor:2;
	conductor_C overhead_line_conductor:2;
	conductor_N overhead_line_conductor:2;
	spacing line_spacing:17;
}

object line_configuration:35 {
	conductor_C overhead_line_conductor:3;
	conductor_N overhead_line_conductor:3;
	spacing line_spacing:11;
}

object line_configuration:36 {
	conductor_A overhead_line_conductor:3;
	conductor_C overhead_line_conductor:3;
	conductor_N overhead_line_conductor:3;
	spacing line_spacing:18;
}

object line_configuration:37 {
	conductor_C underground_line_conductor:5;
	conductor_N underground_line_conductor:5;
	spacing line_spacing:19;
}

object line_configuration:38 {
	conductor_A underground_line_conductor:5;
	conductor_N underground_line_conductor:5;
	spacing line_spacing:20;
}

object line_configuration:39 {
	conductor_B underground_line_conductor:5;
	conductor_N underground_line_conductor:5;
	spacing line_spacing:21;
}

object line_configuration:40 {
	conductor_A underground_line_conductor:5;
	conductor_B underground_line_conductor:5;
	conductor_C underground_line_conductor:5;
	conductor_N underground_line_conductor:5;
	spacing line_spacing:22;
}

object line_configuration:41 {
	conductor_A overhead_line_conductor:6;
	conductor_B overhead_line_conductor:6;
	conductor_C overhead_line_conductor:6;
	conductor_N overhead_line_conductor:6;
	spacing line_spacing:23;
}

object line_configuration:42 {
	conductor_A overhead_line_conductor:6;
	conductor_B overhead_line_conductor:6;
	conductor_C overhead_line_conductor:6;
	conductor_N overhead_line_conductor:6;
	spacing line_spacing:16;
}

object line_configuration:43 {
	conductor_A overhead_line_conductor:6;
	conductor_B overhead_line_conductor:6;
	conductor_C overhead_line_conductor:6;
	conductor_N overhead_line_conductor:6;
	spacing line_spacing:24;
}

object line_configuration:44 {
	conductor_A overhead_line_conductor:7;
	conductor_B overhead_line_conductor:7;
	conductor_C overhead_line_conductor:7;
	conductor_N overhead_line_conductor:7;
	spacing line_spacing:23;
}

object line_configuration:45 {
	conductor_A overhead_line_conductor:8;
	conductor_B overhead_line_conductor:8;
	conductor_C overhead_line_conductor:8;
	conductor_N overhead_line_conductor:8;
	spacing line_spacing:16;
}

object line_configuration:46 {
	conductor_A overhead_line_conductor:8;
	conductor_B overhead_line_conductor:8;
	conductor_C overhead_line_conductor:8;
	conductor_N overhead_line_conductor:8;
	spacing line_spacing:23;
}

object line_configuration:47 {
	conductor_A overhead_line_conductor:3;
	conductor_C overhead_line_conductor:3;
	conductor_N overhead_line_conductor:3;
	spacing line_spacing:25;
}

object line_configuration:48 {
	conductor_C overhead_line_conductor:2;
	conductor_N overhead_line_conductor:2;
	spacing line_spacing:11;
}

object line_configuration:49 {
	conductor_A overhead_line_conductor:7;
	conductor_B overhead_line_conductor:7;
	conductor_N overhead_line_conductor:7;
	spacing line_spacing:14;
}

object line_configuration:50 {
	conductor_B underground_line_conductor:5;
	conductor_N underground_line_conductor:5;
	spacing line_spacing:15;
}

object line_configuration:51 {
	conductor_A underground_line_conductor:9;
	conductor_B underground_line_conductor:9;
	conductor_C underground_line_conductor:9;
	conductor_N underground_line_conductor:9;
	spacing line_spacing:22;
}

object line_configuration:52 {
	conductor_A underground_line_conductor:10;
	conductor_B underground_line_conductor:10;
	conductor_C underground_line_conductor:10;
	conductor_N underground_line_conductor:10;
	spacing line_spacing:22;
}

object line_configuration:53 {
	conductor_C underground_line_conductor:5;
	conductor_N underground_line_conductor:5;
	spacing line_spacing:11;
}


object line_spacing:11 {
	distance_CN 48.0 in;
}

object line_spacing:12 {
	distance_AN 48.0 in;
}

object line_spacing:13 {
	distance_AB 48.0 in;
	distance_AN 48.0 in;
	distance_BN 48.0 in;
}

object line_spacing:14 {
	distance_AB 51.6 in;
	distance_AN 48.0 in;
	distance_BN 48.0 in;
}

object line_spacing:15 {
	distance_BN 48.0 in;
}

object line_spacing:16 {
	distance_AB 57.6 in;
	distance_BC 57.6 in;
	distance_AC 57.6 in;
	distance_AN 48.0 in;
	distance_BN 48.0 in;
	distance_CN 48.0 in;
}

object line_spacing:17 {
	distance_BC 51.6 in;
	distance_BN 48.0 in;
	distance_CN 48.0 in;
}

object line_spacing:18 {
	distance_AC 51.6 in;
	distance_AN 48.0 in;
	distance_CN 48.0 in;
}

object line_spacing:19 {
	distance_CN 0.0 in;
}

object line_spacing:20 {
	distance_AN 0.0 in;
}

object line_spacing:21 {
	distance_BN 0.0 in;
}

object line_spacing:22 {
	distance_AB 0.0 in;
	distance_BC 0.0 in;
	distance_AC 0.0 in;
	distance_AN 0.0 in;
	distance_BN 0.0 in;
	distance_CN 0.0 in;
}

object line_spacing:23 {
	distance_AB 48.0 in;
	distance_BC 48.0 in;
	distance_AC 48.0 in;
	distance_AN 48.0 in;
	distance_BN 48.0 in;
	distance_CN 48.0 in;
}

object line_spacing:24 {
	distance_AB 46.3 in;
	distance_BC 46.3 in;
	distance_AC 46.3 in;
	distance_AN 48.0 in;
	distance_BN 48.0 in;
	distance_CN 48.0 in;
}

object line_spacing:25 {
	distance_AC 48.0 in;
	distance_AN 48.0 in;
	distance_CN 48.0 in;
}


object load:326 {
	name R4-12-47-2_load_1;
	parent R4-12-47-2_meter_1;
	phases AN;
	voltage_A 7216.88+0.0j;
	constant_power_A 4000+2000j;
	nominal_voltage 7216.88;
	load_class C;
}

object load:327 {
	name R4-12-47-2_load_2;
	parent R4-12-47-2_meter_2;
	phases ABN;
	voltage_A 7216.88+0.0j;
	voltage_B -3608.44-6250j;
	constant_power_A 1500+304.65j;
	constant_power_B 1500+304.65j;
	nominal_voltage 7216.88;
	load_class C;
}

object load:328 {
	name R4-12-47-2_load_3;
	parent R4-12-47-2_meter_3;
	phases BN;
	voltage_B -3608.44-6250j;
	constant_power_B 4000+2000j;
	nominal_voltage 7216.88;
	load_class C;
}

object load:329 {
	name R4-12-47-2_load_4;
	parent R4-12-47-2_meter_4;
	phases BN;
	voltage_B -3608.44-6250j;
	constant_power_B 4000+2000j;
	nominal_voltage 7216.88;
	load_class C;
// object recorder {
		// property voltage_A,voltage_B,voltage_C;
		// interval 60;
		// limit 1440;
		// file "329.csv";
	// };
	object complex_assert{
		target voltage_A;
		value +0+0j;
		within 1;
	};
	object complex_assert{
		target voltage_B;
		value -145.934-219.178j;
		within 1;
	};
	object complex_assert{
		target voltage_C;
		value +0+0j;
		within 1;
	};	
}

object load:330 {
	name R4-12-47-2_load_5;
	parent R4-12-47-2_meter_5;
	phases BN;
	voltage_B -3608.44-6250j;
	constant_power_B 2000+406.2j;
	nominal_voltage 7216.88;
	load_class C;
}

object load:331 {
	name R4-12-47-2_load_6;
	parent R4-12-47-2_meter_6;
	phases BN;
	voltage_B -3608.44-6250j;
	constant_power_B 4000+812.4j;
	nominal_voltage 7216.88;
	load_class C;
}

object load:332 {
	name R4-12-47-2_load_7;
	parent R4-12-47-2_meter_7;
	phases BN;
	voltage_B -3608.44-6250j;
	constant_power_B 4000+812.4j;
	nominal_voltage 7216.88;
	load_class C;
}

object load:333 {
	name R4-12-47-2_load_8;
	parent R4-12-47-2_meter_8;
	phases AN;
	voltage_A 7216.88+0.0j;
	constant_power_A 11000+2234.1j;
	nominal_voltage 7216.88;
	load_class C;
}

object load:334 {
	name R4-12-47-2_load_9;
	parent R4-12-47-2_meter_9;
	phases ABCN;
	voltage_A 7216.88+0.0j;
	voltage_B -3608.44-6250j;
	voltage_C -3608.44+6250j;
	constant_power_A 666.6667+135.4j;
	constant_power_B 666.6667+135.4j;
	constant_power_C 666.6667+135.4j;
	nominal_voltage 7216.88;
	load_class C;
}

object load:335 {
	name R4-12-47-2_load_10;
	parent R4-12-47-2_meter_10;
	phases ABCN;
	voltage_A 7216.88+0.0j;
	voltage_B -3608.44-6250j;
	voltage_C -3608.44+6250j;
	constant_power_A 1666.6667+338.5j;
	constant_power_B 1666.6667+338.5j;
	constant_power_C 1666.6667+338.5j;
	nominal_voltage 7216.88;
	load_class C;
}

object load:336 {
	name R4-12-47-2_load_11;
	parent R4-12-47-2_meter_11;
	phases AN;
	voltage_A 7216.88+0.0j;
	constant_power_A 4000+812.4j;
	nominal_voltage 7216.88;
	load_class C;
}

object load:337 {
	name R4-12-47-2_load_12;
	parent R4-12-47-2_meter_12;
	phases ABCN;
	voltage_A 7216.88+0.0j;
	voltage_B -3608.44-6250j;
	voltage_C -3608.44+6250j;
	constant_power_A 333.3333+67.7j;
	constant_power_B 333.3333+67.7j;
	constant_power_C 333.3333+67.7j;
	nominal_voltage 7216.88;
	load_class C;
}

object load:338 {
	name R4-12-47-2_load_13;
	parent R4-12-47-2_meter_13;
	phases ABCN;
	voltage_A 7216.88+0.0j;
	voltage_B -3608.44-6250j;
	voltage_C -3608.44+6250j;
	constant_power_A 3000+609.3j;
	constant_power_B 0+0j;
	constant_power_C 0+0j;
	nominal_voltage 7216.88;
	load_class C;
}

object load:339 {
	name R4-12-47-2_load_14;
	parent R4-12-47-2_meter_14;
	phases ABCN;
	voltage_A 7216.88+0.0j;
	voltage_B -3608.44-6250j;
	voltage_C -3608.44+6250j;
	constant_power_A 10000+2031j;
	constant_power_B 10000+2031j;
	constant_power_C 10000+2031j;
	nominal_voltage 7216.88;
	load_class C;
}

object load:340 {
	name R4-12-47-2_load_15;
	parent R4-12-47-2_meter_15;
	phases CN;
	voltage_C -3608.44+6250j;
	constant_power_C 4000+2000j;
	nominal_voltage 7216.88;
	load_class C;
}

object load:341 {
	name R4-12-47-2_load_16;
	parent R4-12-47-2_meter_16;
	phases ABCN;
	voltage_A 7216.88+0.0j;
	voltage_B -3608.44-6250j;
	voltage_C -3608.44+6250j;
	constant_power_A 12333.3333+2504.9j;
	constant_power_B 12333.3333+2504.9j;
	constant_power_C 12333.3333+2504.9j;
	nominal_voltage 7216.88;
	load_class C;
}

object load:342 {
	name R4-12-47-2_load_17;
	parent R4-12-47-2_meter_17;
	phases ABCN;
	voltage_A 7216.88+0.0j;
	voltage_B -3608.44-6250j;
	voltage_C -3608.44+6250j;
	constant_power_A 500+101.55j;
	constant_power_B 0+0j;
	constant_power_C 500+101.55j;
	nominal_voltage 7216.88;
	load_class C;
}

object load:343 {
	name R4-12-47-2_load_18;
	parent R4-12-47-2_meter_18;
	phases ABCN;
	voltage_A 7216.88+0.0j;
	voltage_B -3608.44-6250j;
	voltage_C -3608.44+6250j;
	constant_power_A 4000+812.4j;
	constant_power_B 4000+812.4j;
	constant_power_C 4000+812.4j;
	nominal_voltage 7216.88;
	load_class C;
}

object load:344 {
	name R4-12-47-2_load_19;
	parent R4-12-47-2_meter_19;
	phases CN;
	voltage_C -3608.44+6250j;
	constant_power_C 6000+1218.6j;
	nominal_voltage 7216.88;
	load_class C;
}

object load:345 {
	name R4-12-47-2_load_20;
	parent R4-12-47-2_meter_20;
	phases ABCN;
	voltage_A 7216.88+0.0j;
	voltage_B -3608.44-6250j;
	voltage_C -3608.44+6250j;
	constant_power_A 7333.3333+1489.4j;
	constant_power_B 7333.3333+1489.4j;
	constant_power_C 7333.3333+1489.4j;
	nominal_voltage 7216.88;
	load_class C;
// object recorder {
		// property voltage_A,voltage_B,voltage_C;
		// interval 60;
		// limit 1440;
		// file "345.csv";
	// };
	object complex_assert{
		target voltage_A;
		value +274.488-2.47644j;
		within 1;
	};
	object complex_assert{
		target voltage_B;
		value -140.583-236.514j;
		within 1;
	};
	object complex_assert{
		target voltage_C;
		value -137.234+239.994j;
		within 1;
	};	
}

object load:346 {
	name R4-12-47-2_load_21;
	parent R4-12-47-2_meter_21;
	phases ABCN;
	voltage_A 7216.88+0.0j;
	voltage_B -3608.44-6250j;
	voltage_C -3608.44+6250j;
	constant_power_A 22000+4468.2j;
	constant_power_B 0+0j;
	constant_power_C 0+0j;
	nominal_voltage 7216.88;
	load_class C;
}


object meter:875 {
	name R4-12-47-2_meter_1;
	phases AN;
	voltage_A 7216.88+0.0j;
	nominal_voltage 7216.88;
}

object meter:876 {
	name R4-12-47-2_meter_2;
	phases ABN;
	voltage_A 7216.88+0.0j;
	voltage_B -3608.44-6250j;
	nominal_voltage 7216.88;
// object recorder {
		// property voltage_A,voltage_B,voltage_C;
		// interval 60;
		// limit 1440;
		// file "876.csv";
	// };
	object complex_assert{
		target voltage_A;
		value +274.788-0.421123d;
		within 1;
	};
	object complex_assert{
		target voltage_B;
		value -140.315-236.928j;
		within 1;
	};
	object complex_assert{
		target voltage_C;
		value +0+0j;
		within 1;
	};	
}

object meter:877 {
	name R4-12-47-2_meter_3;
	phases BN;
	voltage_B -3608.44-6250j;
	nominal_voltage 7216.88;
}

object meter:878 {
	name R4-12-47-2_meter_4;
	phases BN;
	voltage_B -3608.44-6250j;
	nominal_voltage 7216.88;
}

object meter:879 {
	name R4-12-47-2_meter_5;
	phases BN;
	voltage_B -3608.44-6250j;
	nominal_voltage 7216.88;
}

object meter:880 {
	name R4-12-47-2_meter_6;
	phases BN;
	voltage_B -3608.44-6250j;
	nominal_voltage 7216.88;
}

object meter:881 {
	name R4-12-47-2_meter_7;
	phases BN;
	voltage_B -3608.44-6250j;
	nominal_voltage 7216.88;
}

object meter:882 {
	name R4-12-47-2_meter_8;
	phases AN;
	voltage_A 7216.88+0.0j;
	nominal_voltage 7216.88;
}

object meter:883 {
	name R4-12-47-2_meter_9;
	phases ABCN;
	voltage_A 7216.88+0.0j;
	voltage_B -3608.44-6250j;
	voltage_C -3608.44+6250j;
	nominal_voltage 7216.88;
}

object meter:884 {
	name R4-12-47-2_meter_10;
	phases ABCN;
	voltage_A 7216.88+0.0j;
	voltage_B -3608.44-6250j;
	voltage_C -3608.44+6250j;
	nominal_voltage 7216.88;
}

object meter:885 {
	name R4-12-47-2_meter_11;
	phases AN;
	voltage_A 7216.88+0.0j;
	nominal_voltage 7216.88;
}

object meter:886 {
	name R4-12-47-2_meter_12;
	phases ABCN;
	voltage_A 7216.88+0.0j;
	voltage_B -3608.44-6250j;
	voltage_C -3608.44+6250j;
	nominal_voltage 7216.88;
}

object meter:887 {
	name R4-12-47-2_meter_13;
	phases ABCN;
	voltage_A 7216.88+0.0j;
	voltage_B -3608.44-6250j;
	voltage_C -3608.44+6250j;
	nominal_voltage 7216.88;
}

object meter:888 {
	name R4-12-47-2_meter_14;
	phases ABCN;
	voltage_A 7216.88+0.0j;
	voltage_B -3608.44-6250j;
	voltage_C -3608.44+6250j;
	nominal_voltage 7216.88;
}

object meter:889 {
	name R4-12-47-2_meter_15;
	phases CN;
	voltage_C -3608.44+6250j;
	nominal_voltage 7216.88;
}

object meter:890 {
	name R4-12-47-2_meter_16;
	phases ABCN;
	voltage_A 7216.88+0.0j;
	voltage_B -3608.44-6250j;
	voltage_C -3608.44+6250j;
	nominal_voltage 7216.88;
}

object meter:891 {
	name R4-12-47-2_meter_17;
	phases ABCN;
	voltage_A 7216.88+0.0j;
	voltage_B -3608.44-6250j;
	voltage_C -3608.44+6250j;
	nominal_voltage 7216.88;
}

object meter:892 {
	name R4-12-47-2_meter_18;
	phases ABCN;
	voltage_A 7216.88+0.0j;
	voltage_B -3608.44-6250j;
	voltage_C -3608.44+6250j;
	nominal_voltage 7216.88;
}

object meter:893 {
	name R4-12-47-2_meter_19;
	phases CN;
	voltage_C -3608.44+6250j;
	nominal_voltage 7216.88;
}

object meter:894 {
	name R4-12-47-2_meter_20;
	phases ABCN;
	voltage_A 7216.88+0.0j;
	voltage_B -3608.44-6250j;
	voltage_C -3608.44+6250j;
	nominal_voltage 7216.88;
// object recorder {
		// property voltage_A,voltage_B,voltage_C;
		// interval 60;
		// limit 1440;
		// file "894.csv";
	// };
	object complex_assert{
		target voltage_A;
		value +274.488-2.47644j;
		within 1;
	};
	object complex_assert{
		target voltage_B;
		value -140.583-236.514j;
		within 1;
	};
	object complex_assert{
		target voltage_C;
		value -137.234+239.994j;
		within 1;
	};	
}

object meter:895 {
	name R4-12-47-2_meter_21;
	phases ABCN;
	voltage_A 7216.88+0.0j;
	voltage_B -3608.44-6250j;
	voltage_C -3608.44+6250j;
	nominal_voltage 7216.88;
}

// Meter at feeder
object meter:1594 {
	name R4-12-47-2_meter_22;
	phases ABCN;
	nominal_voltage 7216.88; 
	voltage_A 7216.88+0.0j;
	voltage_B -3608.44-6250j;
	voltage_C -3608.44+6250j;
}


object node:54 {
	name R4-12-47-2_node_1;
	phases BN;
	voltage_B -3608.44-6250j;
	nominal_voltage 7216.88;
}

object node:55 {
	name R4-12-47-2_node_2;
	phases BN;
	voltage_B -3608.44-6250j;
	nominal_voltage 7216.88;
}

object node:56 {
	name R4-12-47-2_node_3;
	phases BN;
	voltage_B -3608.44-6250j;
	nominal_voltage 7216.88;
}

object node:57 {
	name R4-12-47-2_node_4;
	phases BN;
	voltage_B -3608.44-6250j;
	nominal_voltage 7216.88;
}

object node:58 {
	name R4-12-47-2_node_5;
	phases AN;
	voltage_A 7216.88+0.0j;
	nominal_voltage 7216.88;
}

object node:59 {
	name R4-12-47-2_node_6;
	phases AN;
	voltage_A 7216.88+0.0j;
	nominal_voltage 7216.88;
}

object node:60 {
	name R4-12-47-2_node_7;
	phases BN;
	voltage_B -3608.44-6250j;
	nominal_voltage 7216.88;
}

object node:61 {
	name R4-12-47-2_node_8;
	phases BN;
	voltage_B -3608.44-6250j;
	nominal_voltage 7216.88;
}

object node:62 {
	name R4-12-47-2_node_9;
	phases AN;
	voltage_A 7216.88+0.0j;
	nominal_voltage 7216.88;
}

object node:63 {
	name R4-12-47-2_node_10;
	phases ABN;
	voltage_A 7216.88+0.0j;
	voltage_B -3608.44-6250j;
	nominal_voltage 7216.88;
}

object node:64 {
	name R4-12-47-2_node_11;
	phases BN;
	voltage_B -3608.44-6250j;
	nominal_voltage 7216.88;
}

object node:65 {
	name R4-12-47-2_node_12;
	phases ABCN;
	voltage_A 7216.88+0.0j;
	voltage_B -3608.44-6250j;
	voltage_C -3608.44+6250j;
	nominal_voltage 7216.88;
}

object node:66 {
	name R4-12-47-2_node_13;
	phases ABCN;
	voltage_A 7216.88+0.0j;
	voltage_B -3608.44-6250j;
	voltage_C -3608.44+6250j;
	nominal_voltage 7216.88;
}

object node:67 {
	name R4-12-47-2_node_14;
	phases ABCN;
	voltage_A 7216.88+0.0j;
	voltage_B -3608.44-6250j;
	voltage_C -3608.44+6250j;
	nominal_voltage 7216.88;
}

object node:68 {
	name R4-12-47-2_node_15;
	phases ABCN;
	voltage_A 7216.88+0.0j;
	voltage_B -3608.44-6250j;
	voltage_C -3608.44+6250j;
	nominal_voltage 7216.88;
}

object node:69 {
	name R4-12-47-2_node_16;
	phases ABCN;
	voltage_A 7216.88+0.0j;
	voltage_B -3608.44-6250j;
	voltage_C -3608.44+6250j;
	nominal_voltage 7216.88;
}

object node:70 {
	name R4-12-47-2_node_17;
	phases BCN;
	voltage_B -3608.44-6250j;
	voltage_C -3608.44+6250j;
	nominal_voltage 7216.88;
}

object node:71 {
	name R4-12-47-2_node_18;
	phases ABCN;
	voltage_A 7216.88+0.0j;
	voltage_B -3608.44-6250j;
	voltage_C -3608.44+6250j;
	nominal_voltage 7216.88;
}

object node:72 {
	name R4-12-47-2_node_19;
	phases ABCN;
	voltage_A 7216.88+0.0j;
	voltage_B -3608.44-6250j;
	voltage_C -3608.44+6250j;
	nominal_voltage 7216.88;
}

object node:73 {
	name R4-12-47-2_node_20;
	phases ABCN;
	voltage_A 7216.88+0.0j;
	voltage_B -3608.44-6250j;
	voltage_C -3608.44+6250j;
	nominal_voltage 7216.88;
}

object node:74 {
	name R4-12-47-2_node_21;
	phases ABCN;
	voltage_A 7216.88+0.0j;
	voltage_B -3608.44-6250j;
	voltage_C -3608.44+6250j;
	nominal_voltage 7216.88;
}

object node:75 {
	name R4-12-47-2_node_22;
	phases ABCN;
	voltage_A 7216.88+0.0j;
	voltage_B -3608.44-6250j;
	voltage_C -3608.44+6250j;
	nominal_voltage 7216.88;
}

object node:76 {
	name R4-12-47-2_node_23;
	phases ABCN;
	voltage_A 7216.88+0.0j;
	voltage_B -3608.44-6250j;
	voltage_C -3608.44+6250j;
	nominal_voltage 7216.88;
}

object node:77 {
	name R4-12-47-2_node_24;
	phases ABCN;
	voltage_A 7216.88+0.0j;
	voltage_B -3608.44-6250j;
	voltage_C -3608.44+6250j;
	nominal_voltage 7216.88;
	// object recorder {
		// property voltage_A,voltage_B,voltage_C;
		// interval 60;
		// limit 1440;
		// file "77.csv";
	// };
	object complex_assert{
		target voltage_A;
		value +7154.37-50.4084j;
		within 1;
	};
	object complex_assert{
		target voltage_B;
		value -3652.07-6171.07j;
		within 1;
	};
	object complex_assert{
		target voltage_C;
		value -3588.42+6248.21j;
		within 1;
	};	
}

object node:78 {
	name R4-12-47-2_node_25;
	phases ABCN;
	voltage_A 7216.88+0.0j;
	voltage_B -3608.44-6250j;
	voltage_C -3608.44+6250j;
	nominal_voltage 7216.88;
}

object node:79 {
	name R4-12-47-2_node_26;
	phases ABCN;
	voltage_A 7216.88+0.0j;
	voltage_B -3608.44-6250j;
	voltage_C -3608.44+6250j;
	nominal_voltage 7216.88;
}

object node:80 {
	name R4-12-47-2_node_27;
	phases ABCN;
	voltage_A 7216.88+0.0j;
	voltage_B -3608.44-6250j;
	voltage_C -3608.44+6250j;
	nominal_voltage 7216.88;
}

object node:81 {
	name R4-12-47-2_node_28;
	phases ABCN;
	voltage_A 7216.88+0.0j;
	voltage_B -3608.44-6250j;
	voltage_C -3608.44+6250j;
	nominal_voltage 7216.88;
}

object node:82 {
	name R4-12-47-2_node_29;
	phases BN;
	voltage_B -3608.44-6250j;
	nominal_voltage 7216.88;
}

object node:83 {
	name R4-12-47-2_node_30;
	phases BN;
	voltage_B -3608.44-6250j;
	nominal_voltage 7216.88;
}

object node:84 {
	name R4-12-47-2_node_31;
	phases AN;
	voltage_A 7216.88+0.0j;
	nominal_voltage 7216.88;
}

object node:85 {
	name R4-12-47-2_node_32;
	phases ABCN;
	voltage_A 7216.88+0.0j;
	voltage_B -3608.44-6250j;
	voltage_C -3608.44+6250j;
	nominal_voltage 7216.88;
}

object node:86 {
	name R4-12-47-2_node_33;
	phases ABCN;
	voltage_A 7216.88+0.0j;
	voltage_B -3608.44-6250j;
	voltage_C -3608.44+6250j;
	nominal_voltage 7216.88;
}

object node:87 {
	name R4-12-47-2_node_34;
	phases CN;
	voltage_C -3608.44+6250j;
	nominal_voltage 7216.88;
}

object node:88 {
	name R4-12-47-2_node_35;
	phases ABCN;
	voltage_A 7216.88+0.0j;
	voltage_B -3608.44-6250j;
	voltage_C -3608.44+6250j;
	nominal_voltage 7216.88;
}

object node:89 {
	name R4-12-47-2_node_36;
	phases BN;
	voltage_B -3608.44-6250j;
	nominal_voltage 7216.88;
}

object node:90 {
	name R4-12-47-2_node_37;
	phases AN;
	voltage_A 7216.88+0.0j;
	nominal_voltage 7216.88;
}

object node:91 {
	name R4-12-47-2_node_38;
	phases AN;
	voltage_A 7216.88+0.0j;
	nominal_voltage 7216.88;
}

object node:92 {
	name R4-12-47-2_node_39;
	phases CN;
	voltage_C -3608.44+6250j;
	nominal_voltage 7216.88;
}

object node:93 {
	name R4-12-47-2_node_40;
	phases ABCN;
	voltage_A 7216.88+0.0j;
	voltage_B -3608.44-6250j;
	voltage_C -3608.44+6250j;
	nominal_voltage 7216.88;
}

object node:94 {
	name R4-12-47-2_node_41;
	phases ABCN;
	voltage_A 7216.88+0.0j;
	voltage_B -3608.44-6250j;
	voltage_C -3608.44+6250j;
	nominal_voltage 7216.88;
}

object node:95 {
	name R4-12-47-2_node_42;
	phases ABCN;
	voltage_A 7216.88+0.0j;
	voltage_B -3608.44-6250j;
	voltage_C -3608.44+6250j;
	nominal_voltage 7216.88;
}

object node:96 {
	name R4-12-47-2_node_43;
	phases ABCN;
	voltage_A 7216.88+0.0j;
	voltage_B -3608.44-6250j;
	voltage_C -3608.44+6250j;
	nominal_voltage 7216.88;
}

object node:97 {
	name R4-12-47-2_node_44;
	phases ABCN;
	voltage_A 7216.88+0.0j;
	voltage_B -3608.44-6250j;
	voltage_C -3608.44+6250j;
	nominal_voltage 7216.88;
}

object node:98 {
	name R4-12-47-2_node_45;
	phases ABCN;
	voltage_A 7216.88+0.0j;
	voltage_B -3608.44-6250j;
	voltage_C -3608.44+6250j;
	nominal_voltage 7216.88;
}

object node:99 {
	name R4-12-47-2_node_46;
	phases CN;
	voltage_C -3608.44+6250j;
	nominal_voltage 7216.88;
}

object node:100 {
	name R4-12-47-2_node_47;
	phases CN;
	voltage_C -3608.44+6250j;
	nominal_voltage 7216.88;
}

object node:101 {
	name R4-12-47-2_node_48;
	phases CN;
	voltage_C -3608.44+6250j;
	nominal_voltage 7216.88;
}

object node:102 {
	name R4-12-47-2_node_49;
	phases CN;
	voltage_C -3608.44+6250j;
	nominal_voltage 7216.88;
}

object node:103 {
	name R4-12-47-2_node_50;
	phases CN;
	voltage_C -3608.44+6250j;
	nominal_voltage 7216.88;
}

object node:104 {
	name R4-12-47-2_node_51;
	phases CN;
	voltage_C -3608.44+6250j;
	nominal_voltage 7216.88;
}

object node:105 {
	name R4-12-47-2_node_52;
	phases CN;
	voltage_C -3608.44+6250j;
	nominal_voltage 7216.88;
}

object node:106 {
	name R4-12-47-2_node_53;
	phases CN;
	voltage_C -3608.44+6250j;
	nominal_voltage 7216.88;
}

object node:107 {
	name R4-12-47-2_node_54;
	phases AN;
	voltage_A 7216.88+0.0j;
	nominal_voltage 7216.88;
}

object node:108 {
	name R4-12-47-2_node_55;
	phases CN;
	voltage_C -3608.44+6250j;
	nominal_voltage 7216.88;
}

object node:109 {
	name R4-12-47-2_node_56;
	phases CN;
	voltage_C -3608.44+6250j;
	nominal_voltage 7216.88;
}

object node:110 {
	name R4-12-47-2_node_57;
	phases AN;
	voltage_A 7216.88+0.0j;
	nominal_voltage 7216.88;
}

object node:111 {
	name R4-12-47-2_node_58;
	phases BN;
	voltage_B -3608.44-6250j;
	nominal_voltage 7216.88;
}

object node:112 {
	name R4-12-47-2_node_59;
	phases CN;
	voltage_C -3608.44+6250j;
	nominal_voltage 7216.88;
}

object node:113 {
	name R4-12-47-2_node_60;
	phases ABCN;
	voltage_A 7216.88+0.0j;
	voltage_B -3608.44-6250j;
	voltage_C -3608.44+6250j;
	nominal_voltage 7216.88;
}

object node:114 {
	name R4-12-47-2_node_61;
	phases AN;
	voltage_A 7216.88+0.0j;
	nominal_voltage 7216.88;
}

object node:115 {
	name R4-12-47-2_node_62;
	phases BN;
	voltage_B -3608.44-6250j;
	nominal_voltage 7216.88;
}

object node:116 {
	name R4-12-47-2_node_63;
	phases ABCN;
	voltage_A 7216.88+0.0j;
	voltage_B -3608.44-6250j;
	voltage_C -3608.44+6250j;
	nominal_voltage 7216.88;
}

object node:117 {
	name R4-12-47-2_node_64;
	phases ABCN;
	voltage_A 7216.88+0.0j;
	voltage_B -3608.44-6250j;
	voltage_C -3608.44+6250j;
	nominal_voltage 7216.88;
}

object node:118 {
	name R4-12-47-2_node_65;
	phases ABCN;
	voltage_A 7216.88+0.0j;
	voltage_B -3608.44-6250j;
	voltage_C -3608.44+6250j;
	nominal_voltage 7216.88;
}

object node:119 {
	name R4-12-47-2_node_66;
	phases ABCN;
	voltage_A 7216.88+0.0j;
	voltage_B -3608.44-6250j;
	voltage_C -3608.44+6250j;
	nominal_voltage 7216.88;
}

object node:120 {
	name R4-12-47-2_node_67;
	phases ABCN;
	voltage_A 7216.88+0.0j;
	voltage_B -3608.44-6250j;
	voltage_C -3608.44+6250j;
	nominal_voltage 7216.88;
}

object node:121 {
	name R4-12-47-2_node_68;
	phases ABCN;
	voltage_A 7216.88+0.0j;
	voltage_B -3608.44-6250j;
	voltage_C -3608.44+6250j;
	nominal_voltage 7216.88;
}

object node:122 {
	name R4-12-47-2_node_69;
	phases CN;
	voltage_C -3608.44+6250j;
	nominal_voltage 7216.88;
}

object node:123 {
	name R4-12-47-2_node_70;
	phases BN;
	voltage_B -3608.44-6250j;
	nominal_voltage 7216.88;
}

object node:124 {
	name R4-12-47-2_node_71;
	phases CN;
	voltage_C -3608.44+6250j;
	nominal_voltage 7216.88;
}

object node:125 {
	name R4-12-47-2_node_72;
	phases AN;
	voltage_A 7216.88+0.0j;
	nominal_voltage 7216.88;
}

object node:126 {
	name R4-12-47-2_node_73;
	phases BN;
	voltage_B -3608.44-6250j;
	nominal_voltage 7216.88;
}

object node:127 {
	name R4-12-47-2_node_74;
	phases AN;
	voltage_A 7216.88+0.0j;
	nominal_voltage 7216.88;
}

object node:128 {
	name R4-12-47-2_node_75;
	phases BN;
	voltage_B -3608.44-6250j;
	nominal_voltage 7216.88;
}

object node:129 {
	name R4-12-47-2_node_76;
	phases CN;
	voltage_C -3608.44+6250j;
	nominal_voltage 7216.88;
}

object node:130 {
	name R4-12-47-2_node_77;
	phases AN;
	voltage_A 7216.88+0.0j;
	nominal_voltage 7216.88;
}

object node:131 {
	name R4-12-47-2_node_78;
	phases CN;
	voltage_C -3608.44+6250j;
	nominal_voltage 7216.88;
}

object node:132 {
	name R4-12-47-2_node_79;
	phases AN;
	voltage_A 7216.88+0.0j;
	nominal_voltage 7216.88;
}

object node:133 {
	name R4-12-47-2_node_80;
	phases BN;
	voltage_B -3608.44-6250j;
	nominal_voltage 7216.88;
}

object node:134 {
	name R4-12-47-2_node_81;
	phases BN;
	voltage_B -3608.44-6250j;
	nominal_voltage 7216.88;
}

object node:135 {
	name R4-12-47-2_node_82;
	phases ABCN;
	voltage_A 7216.88+0.0j;
	voltage_B -3608.44-6250j;
	voltage_C -3608.44+6250j;
	nominal_voltage 7216.88;
}

object node:136 {
	name R4-12-47-2_node_83;
	phases BN;
	voltage_B -3608.44-6250j;
	nominal_voltage 7216.88;
}

object node:137 {
	name R4-12-47-2_node_84;
	phases BCN;
	voltage_B -3608.44-6250j;
	voltage_C -3608.44+6250j;
	nominal_voltage 7216.88;
}

object node:138 {
	name R4-12-47-2_node_85;
	phases AN;
	voltage_A 7216.88+0.0j;
	nominal_voltage 7216.88;
}

object node:139 {
	name R4-12-47-2_node_86;
	phases CN;
	voltage_C -3608.44+6250j;
	nominal_voltage 7216.88;
}

object node:140 {
	name R4-12-47-2_node_87;
	phases AN;
	voltage_A 7216.88+0.0j;
	nominal_voltage 7216.88;
}

object node:141 {
	name R4-12-47-2_node_88;
	phases CN;
	voltage_C -3608.44+6250j;
	nominal_voltage 7216.88;
}

object node:142 {
	name R4-12-47-2_node_89;
	phases CN;
	voltage_C -3608.44+6250j;
	nominal_voltage 7216.88;
}

object node:143 {
	name R4-12-47-2_node_90;
	phases CN;
	voltage_C -3608.44+6250j;
	nominal_voltage 7216.88;
}

object node:144 {
	name R4-12-47-2_node_91;
	phases ACN;
	voltage_A 7216.88+0.0j;
	voltage_C -3608.44+6250j;
	nominal_voltage 7216.88;
}

object node:145 {
	name R4-12-47-2_node_92;
	phases AN;
	voltage_A 7216.88+0.0j;
	nominal_voltage 7216.88;
}

object node:146 {
	name R4-12-47-2_node_93;
	phases ABCN;
	voltage_A 7216.88+0.0j;
	voltage_B -3608.44-6250j;
	voltage_C -3608.44+6250j;
	nominal_voltage 7216.88;
object recorder {
		property voltage_A,voltage_B,voltage_C;
		interval 60;
		limit 1440;
		file "146.csv";
	};
	object complex_assert{
		target voltage_A;
		value +7154.37-50.4084j;
		within 1;
	};
	object complex_assert{
		target voltage_B;
		value -3652.07-6171.07j;
		within 1;
	};
	object complex_assert{
		target voltage_C;
		value -3588.42+6248.21j;
		within 1;
	};	
}

object node:147 {
	name R4-12-47-2_node_94;
	phases ABCN;
	voltage_A 7216.88+0.0j;
	voltage_B -3608.44-6250j;
	voltage_C -3608.44+6250j;
	nominal_voltage 7216.88;
}

object node:148 {
	name R4-12-47-2_node_95;
	phases AN;
	voltage_A 7216.88+0.0j;
	nominal_voltage 7216.88;
}

object node:149 {
	name R4-12-47-2_node_96;
	phases BN;
	voltage_B -3608.44-6250j;
	nominal_voltage 7216.88;
}

object node:150 {
	name R4-12-47-2_node_97;
	phases BN;
	voltage_B -3608.44-6250j;
	nominal_voltage 7216.88;
}

object node:151 {
	name R4-12-47-2_node_98;
	phases BN;
	voltage_B -3608.44-6250j;
	nominal_voltage 7216.88;
}

object node:152 {
	name R4-12-47-2_node_99;
	phases CN;
	voltage_C -3608.44+6250j;
	nominal_voltage 7216.88;
}

object node:153 {
	name R4-12-47-2_node_100;
	phases CN;
	voltage_C -3608.44+6250j;
	nominal_voltage 7216.88;
}

object node:154 {
	name R4-12-47-2_node_101;
	phases ABCN;
	voltage_A 7216.88+0.0j;
	voltage_B -3608.44-6250j;
	voltage_C -3608.44+6250j;
	nominal_voltage 7216.88;
}

object node:155 {
	name R4-12-47-2_node_102;
	phases CN;
	voltage_C -3608.44+6250j;
	nominal_voltage 7216.88;
}

object node:156 {
	name R4-12-47-2_node_103;
	phases CN;
	voltage_C -3608.44+6250j;
	nominal_voltage 7216.88;
}

object node:157 {
	name R4-12-47-2_node_104;
	phases CN;
	voltage_C -3608.44+6250j;
	nominal_voltage 7216.88;
}

object node:158 {
	name R4-12-47-2_node_105;
	phases CN;
	voltage_C -3608.44+6250j;
	nominal_voltage 7216.88;
}

object node:159 {
	name R4-12-47-2_node_106;
	phases CN;
	voltage_C -3608.44+6250j;
	nominal_voltage 7216.88;
}

object node:160 {
	name R4-12-47-2_node_107;
	phases CN;
	voltage_C -3608.44+6250j;
	nominal_voltage 7216.88;
}

object node:161 {
	name R4-12-47-2_node_108;
	phases CN;
	voltage_C -3608.44+6250j;
	nominal_voltage 7216.88;
}

object node:162 {
	name R4-12-47-2_node_109;
	phases CN;
	voltage_C -3608.44+6250j;
	nominal_voltage 7216.88;
}

object node:163 {
	name R4-12-47-2_node_110;
	phases ABCN;
	voltage_A 7216.88+0.0j;
	voltage_B -3608.44-6250j;
	voltage_C -3608.44+6250j;
	nominal_voltage 7216.88;
}

object node:164 {
	name R4-12-47-2_node_111;
	phases ABCN;
	voltage_A 7216.88+0.0j;
	voltage_B -3608.44-6250j;
	voltage_C -3608.44+6250j;
	nominal_voltage 7216.88;
}

object node:165 {
	name R4-12-47-2_node_112;
	phases AN;
	voltage_A 7216.88+0.0j;
	nominal_voltage 7216.88;
}

object node:166 {
	name R4-12-47-2_node_113;
	phases AN;
	voltage_A 7216.88+0.0j;
	nominal_voltage 7216.88;
}

object node:167 {
	name R4-12-47-2_node_114;
	phases AN;
	voltage_A 7216.88+0.0j;
	nominal_voltage 7216.88;
}

object node:168 {
	name R4-12-47-2_node_115;
	phases BN;
	voltage_B -3608.44-6250j;
	nominal_voltage 7216.88;
}

object node:169 {
	name R4-12-47-2_node_116;
	phases AN;
	voltage_A 7216.88+0.0j;
	nominal_voltage 7216.88;
}

object node:170 {
	name R4-12-47-2_node_117;
	phases AN;
	voltage_A 7216.88+0.0j;
	nominal_voltage 7216.88;
}

object node:171 {
	name R4-12-47-2_node_118;
	phases AN;
	voltage_A 7216.88+0.0j;
	nominal_voltage 7216.88;
}

object node:172 {
	name R4-12-47-2_node_119;
	phases AN;
	voltage_A 7216.88+0.0j;
	nominal_voltage 7216.88;
}

object node:173 {
	name R4-12-47-2_node_120;
	phases AN;
	voltage_A 7216.88+0.0j;
	nominal_voltage 7216.88;
}

object node:174 {
	name R4-12-47-2_node_121;
	phases AN;
	voltage_A 7216.88+0.0j;
	nominal_voltage 7216.88;
}

object node:175 {
	name R4-12-47-2_node_122;
	phases BN;
	voltage_B -3608.44-6250j;
	nominal_voltage 7216.88;
}

object node:176 {
	name R4-12-47-2_node_123;
	phases BN;
	voltage_B -3608.44-6250j;
	nominal_voltage 7216.88;
}

object node:177 {
	name R4-12-47-2_node_124;
	phases BN;
	voltage_B -3608.44-6250j;
	nominal_voltage 7216.88;
}

object node:178 {
	name R4-12-47-2_node_125;
	phases BN;
	voltage_B -3608.44-6250j;
	nominal_voltage 7216.88;
}

object node:179 {
	name R4-12-47-2_node_126;
	phases BN;
	voltage_B -3608.44-6250j;
	nominal_voltage 7216.88;
}

object node:180 {
	name R4-12-47-2_node_127;
	phases BN;
	voltage_B -3608.44-6250j;
	nominal_voltage 7216.88;
}

object node:181 {
	name R4-12-47-2_node_128;
	phases CN;
	voltage_C -3608.44+6250j;
	nominal_voltage 7216.88;
}

object node:182 {
	name R4-12-47-2_node_129;
	phases CN;
	voltage_C -3608.44+6250j;
	nominal_voltage 7216.88;
}

object node:183 {
	name R4-12-47-2_node_130;
	phases BN;
	voltage_B -3608.44-6250j;
	nominal_voltage 7216.88;
}

object node:184 {
	name R4-12-47-2_node_131;
	phases BN;
	voltage_B -3608.44-6250j;
	nominal_voltage 7216.88;
}

object node:185 {
	name R4-12-47-2_node_132;
	phases BN;
	voltage_B -3608.44-6250j;
	nominal_voltage 7216.88;
}

object node:186 {
	name R4-12-47-2_node_133;
	phases CN;
	voltage_C -3608.44+6250j;
	nominal_voltage 7216.88;
}

object node:187 {
	name R4-12-47-2_node_134;
	phases CN;
	voltage_C -3608.44+6250j;
	nominal_voltage 7216.88;
}

object node:188 {
	name R4-12-47-2_node_135;
	phases CN;
	voltage_C -3608.44+6250j;
	nominal_voltage 7216.88;
}

object node:189 {
	name R4-12-47-2_node_136;
	phases AN;
	voltage_A 7216.88+0.0j;
	nominal_voltage 7216.88;
}

object node:190 {
	name R4-12-47-2_node_137;
	phases AN;
	voltage_A 7216.88+0.0j;
	nominal_voltage 7216.88;
}

object node:191 {
	name R4-12-47-2_node_138;
	phases AN;
	voltage_A 7216.88+0.0j;
	nominal_voltage 7216.88;
}

object node:192 {
	name R4-12-47-2_node_139;
	phases AN;
	voltage_A 7216.88+0.0j;
	nominal_voltage 7216.88;
}

object node:193 {
	name R4-12-47-2_node_140;
	phases AN;
	voltage_A 7216.88+0.0j;
	nominal_voltage 7216.88;
}

object node:194 {
	name R4-12-47-2_node_141;
	phases AN;
	voltage_A 7216.88+0.0j;
	nominal_voltage 7216.88;
}

object node:195 {
	name R4-12-47-2_node_142;
	phases AN;
	voltage_A 7216.88+0.0j;
	nominal_voltage 7216.88;
}

object node:196 {
	name R4-12-47-2_node_143;
	phases AN;
	voltage_A 7216.88+0.0j;
	nominal_voltage 7216.88;
}

object node:197 {
	name R4-12-47-2_node_144;
	phases AN;
	voltage_A 7216.88+0.0j;
	nominal_voltage 7216.88;
}

object node:198 {
	name R4-12-47-2_node_145;
	phases BN;
	voltage_B -3608.44-6250j;
	nominal_voltage 7216.88;
}

object node:199 {
	name R4-12-47-2_node_146;
	phases BN;
	voltage_B -3608.44-6250j;
	nominal_voltage 7216.88;
}

object node:200 {
	name R4-12-47-2_node_147;
	phases BN;
	voltage_B -3608.44-6250j;
	nominal_voltage 7216.88;
}

object node:201 {
	name R4-12-47-2_node_148;
	phases BN;
	voltage_B -3608.44-6250j;
	nominal_voltage 7216.88;
}

object node:202 {
	name R4-12-47-2_node_149;
	phases BN;
	voltage_B -3608.44-6250j;
	nominal_voltage 7216.88;
}

object node:203 {
	name R4-12-47-2_node_150;
	phases BN;
	voltage_B -3608.44-6250j;
	nominal_voltage 7216.88;
}

object node:204 {
	name R4-12-47-2_node_151;
	phases BN;
	voltage_B -3608.44-6250j;
	nominal_voltage 7216.88;
}

object node:205 {
	name R4-12-47-2_node_152;
	phases BN;
	voltage_B -3608.44-6250j;
	nominal_voltage 7216.88;
}

object node:206 {
	name R4-12-47-2_node_153;
	phases CN;
	voltage_C -3608.44+6250j;
	nominal_voltage 7216.88;
}

object node:207 {
	name R4-12-47-2_node_154;
	phases AN;
	voltage_A 7216.88+0.0j;
	nominal_voltage 7216.88;
}

object node:208 {
	name R4-12-47-2_node_155;
	phases AN;
	voltage_A 7216.88+0.0j;
	nominal_voltage 7216.88;
}

object node:209 {
	name R4-12-47-2_node_156;
	phases AN;
	voltage_A 7216.88+0.0j;
	nominal_voltage 7216.88;
}

object node:210 {
	name R4-12-47-2_node_157;
	phases AN;
	voltage_A 7216.88+0.0j;
	nominal_voltage 7216.88;
}

object node:211 {
	name R4-12-47-2_node_158;
	phases AN;
	voltage_A 7216.88+0.0j;
	nominal_voltage 7216.88;
}

object node:212 {
	name R4-12-47-2_node_159;
	phases AN;
	voltage_A 7216.88+0.0j;
	nominal_voltage 7216.88;
}

object node:213 {
	name R4-12-47-2_node_160;
	phases AN;
	voltage_A 7216.88+0.0j;
	nominal_voltage 7216.88;
}

object node:214 {
	name R4-12-47-2_node_161;
	phases AN;
	voltage_A 7216.88+0.0j;
	nominal_voltage 7216.88;
}

object node:215 {
	name R4-12-47-2_node_162;
	phases AN;
	voltage_A 7216.88+0.0j;
	nominal_voltage 7216.88;
}

object node:216 {
	name R4-12-47-2_node_163;
	phases AN;
	voltage_A 7216.88+0.0j;
	nominal_voltage 7216.88;
}

object node:217 {
	name R4-12-47-2_node_164;
	phases AN;
	voltage_A 7216.88+0.0j;
	nominal_voltage 7216.88;
}

object node:218 {
	name R4-12-47-2_node_165;
	phases AN;
	voltage_A 7216.88+0.0j;
	nominal_voltage 7216.88;
}

object node:219 {
	name R4-12-47-2_node_166;
	phases AN;
	voltage_A 7216.88+0.0j;
	nominal_voltage 7216.88;
}

object node:220 {
	name R4-12-47-2_node_167;
	phases AN;
	voltage_A 7216.88+0.0j;
	nominal_voltage 7216.88;
}

object node:221 {
	name R4-12-47-2_node_168;
	phases AN;
	voltage_A 7216.88+0.0j;
	nominal_voltage 7216.88;
}

object node:222 {
	name R4-12-47-2_node_169;
	phases AN;
	voltage_A 7216.88+0.0j;
	nominal_voltage 7216.88;
}

object node:223 {
	name R4-12-47-2_node_170;
	phases AN;
	voltage_A 7216.88+0.0j;
	nominal_voltage 7216.88;
}

object node:224 {
	name R4-12-47-2_node_171;
	phases AN;
	voltage_A 7216.88+0.0j;
	nominal_voltage 7216.88;
}

object node:225 {
	name R4-12-47-2_node_172;
	phases AN;
	voltage_A 7216.88+0.0j;
	nominal_voltage 7216.88;
}

object node:226 {
	name R4-12-47-2_node_173;
	phases AN;
	voltage_A 7216.88+0.0j;
	nominal_voltage 7216.88;
}

object node:227 {
	name R4-12-47-2_node_174;
	phases AN;
	voltage_A 7216.88+0.0j;
	nominal_voltage 7216.88;
}

object node:228 {
	name R4-12-47-2_node_175;
	phases AN;
	voltage_A 7216.88+0.0j;
	nominal_voltage 7216.88;
}

object node:229 {
	name R4-12-47-2_node_176;
	phases AN;
	voltage_A 7216.88+0.0j;
	nominal_voltage 7216.88;
}

object node:230 {
	name R4-12-47-2_node_177;
	phases AN;
	voltage_A 7216.88+0.0j;
	nominal_voltage 7216.88;
}

object node:231 {
	name R4-12-47-2_node_178;
	phases AN;
	voltage_A 7216.88+0.0j;
	nominal_voltage 7216.88;
}

object node:232 {
	name R4-12-47-2_node_179;
	phases AN;
	voltage_A 7216.88+0.0j;
	nominal_voltage 7216.88;
}

object node:233 {
	name R4-12-47-2_node_180;
	phases AN;
	voltage_A 7216.88+0.0j;
	nominal_voltage 7216.88;
}

object node:234 {
	name R4-12-47-2_node_181;
	phases BN;
	voltage_B -3608.44-6250j;
	nominal_voltage 7216.88;
}

object node:235 {
	name R4-12-47-2_node_182;
	phases BN;
	voltage_B -3608.44-6250j;
	nominal_voltage 7216.88;
}

object node:236 {
	name R4-12-47-2_node_183;
	phases BN;
	voltage_B -3608.44-6250j;
	nominal_voltage 7216.88;
}

object node:237 {
	name R4-12-47-2_node_184;
	phases BN;
	voltage_B -3608.44-6250j;
	nominal_voltage 7216.88;
}

object node:238 {
	name R4-12-47-2_node_185;
	phases BN;
	voltage_B -3608.44-6250j;
	nominal_voltage 7216.88;
}

object node:239 {
	name R4-12-47-2_node_186;
	phases BN;
	voltage_B -3608.44-6250j;
	nominal_voltage 7216.88;
}

object node:240 {
	name R4-12-47-2_node_187;
	phases BN;
	voltage_B -3608.44-6250j;
	nominal_voltage 7216.88;
}

object node:241 {
	name R4-12-47-2_node_188;
	phases BN;
	voltage_B -3608.44-6250j;
	nominal_voltage 7216.88;
}

object node:242 {
	name R4-12-47-2_node_189;
	phases BN;
	voltage_B -3608.44-6250j;
	nominal_voltage 7216.88;
}

object node:243 {
	name R4-12-47-2_node_190;
	phases BN;
	voltage_B -3608.44-6250j;
	nominal_voltage 7216.88;
}

object node:244 {
	name R4-12-47-2_node_191;
	phases BN;
	voltage_B -3608.44-6250j;
	nominal_voltage 7216.88;
}

object node:245 {
	name R4-12-47-2_node_192;
	phases BN;
	voltage_B -3608.44-6250j;
	nominal_voltage 7216.88;
}

object node:246 {
	name R4-12-47-2_node_193;
	phases AN;
	voltage_A 7216.88+0.0j;
	nominal_voltage 7216.88;
}

object node:247 {
	name R4-12-47-2_node_194;
	phases AN;
	voltage_A 7216.88+0.0j;
	nominal_voltage 7216.88;
}

object node:248 {
	name R4-12-47-2_node_195;
	phases CN;
	voltage_C -3608.44+6250j;
	nominal_voltage 7216.88;
}

object node:249 {
	name R4-12-47-2_node_196;
	phases CN;
	voltage_C -3608.44+6250j;
	nominal_voltage 7216.88;
}

object node:250 {
	name R4-12-47-2_node_197;
	phases CN;
	voltage_C -3608.44+6250j;
	nominal_voltage 7216.88;
}

object node:251 {
	name R4-12-47-2_node_198;
	phases CN;
	voltage_C -3608.44+6250j;
	nominal_voltage 7216.88;
}

object node:252 {
	name R4-12-47-2_node_199;
	phases CN;
	voltage_C -3608.44+6250j;
	nominal_voltage 7216.88;
}

object node:253 {
	name R4-12-47-2_node_200;
	phases CN;
	voltage_C -3608.44+6250j;
	nominal_voltage 7216.88;
}

object node:254 {
	name R4-12-47-2_node_201;
	phases CN;
	voltage_C -3608.44+6250j;
	nominal_voltage 7216.88;
}

object node:255 {
	name R4-12-47-2_node_202;
	phases AN;
	voltage_A 7216.88+0.0j;
	nominal_voltage 7216.88;
}

object node:256 {
	name R4-12-47-2_node_203;
	phases AN;
	voltage_A 7216.88+0.0j;
	nominal_voltage 7216.88;
}

object node:257 {
	name R4-12-47-2_node_204;
	phases AN;
	voltage_A 7216.88+0.0j;
	nominal_voltage 7216.88;
}

object node:258 {
	name R4-12-47-2_node_205;
	phases CN;
	voltage_C -3608.44+6250j;
	nominal_voltage 7216.88;
}

object node:259 {
	name R4-12-47-2_node_206;
	phases BN;
	voltage_B -3608.44-6250j;
	nominal_voltage 7216.88;
}

object node:260 {
	name R4-12-47-2_node_207;
	phases BN;
	voltage_B -3608.44-6250j;
	nominal_voltage 7216.88;
}

object node:261 {
	name R4-12-47-2_node_208;
	phases CN;
	voltage_C -3608.44+6250j;
	nominal_voltage 7216.88;
}

object node:262 {
	name R4-12-47-2_node_209;
	phases CN;
	voltage_C -3608.44+6250j;
	nominal_voltage 7216.88;
}

object node:263 {
	name R4-12-47-2_node_210;
	phases BN;
	voltage_B -3608.44-6250j;
	nominal_voltage 7216.88;
}

object node:264 {
	name R4-12-47-2_node_211;
	phases BN;
	voltage_B -3608.44-6250j;
	nominal_voltage 7216.88;
}

object node:265 {
	name R4-12-47-2_node_212;
	phases BN;
	voltage_B -3608.44-6250j;
	nominal_voltage 7216.88;
}

object node:266 {
	name R4-12-47-2_node_213;
	phases BN;
	voltage_B -3608.44-6250j;
	nominal_voltage 7216.88;
}

object node:267 {
	name R4-12-47-2_node_214;
	phases AN;
	voltage_A 7216.88+0.0j;
	nominal_voltage 7216.88;
}

object node:268 {
	name R4-12-47-2_node_215;
	phases BN;
	voltage_B -3608.44-6250j;
	nominal_voltage 7216.88;
}

object node:269 {
	name R4-12-47-2_node_216;
	phases BN;
	voltage_B -3608.44-6250j;
	nominal_voltage 7216.88;
}

object node:270 {
	name R4-12-47-2_node_217;
	phases BN;
	voltage_B -3608.44-6250j;
	nominal_voltage 7216.88;
}

object node:271 {
	name R4-12-47-2_node_218;
	phases BN;
	voltage_B -3608.44-6250j;
	nominal_voltage 7216.88;
}

object node:272 {
	name R4-12-47-2_node_219;
	phases BN;
	voltage_B -3608.44-6250j;
	nominal_voltage 7216.88;
}

object node:273 {
	name R4-12-47-2_node_220;
	phases BN;
	voltage_B -3608.44-6250j;
	nominal_voltage 7216.88;
}

object node:274 {
	name R4-12-47-2_node_221;
	phases AN;
	voltage_A 7216.88+0.0j;
	nominal_voltage 7216.88;
}

object node:275 {
	name R4-12-47-2_node_222;
	phases AN;
	voltage_A 7216.88+0.0j;
	nominal_voltage 7216.88;
}

object node:276 {
	name R4-12-47-2_node_223;
	phases ABCN;
	voltage_A 7216.88+0.0j;
	voltage_B -3608.44-6250j;
	voltage_C -3608.44+6250j;
	nominal_voltage 7216.88;
}

object node:277 {
	name R4-12-47-2_node_224;
	phases BN;
	voltage_B -3608.44-6250j;
	nominal_voltage 7216.88;
}

object node:278 {
	name R4-12-47-2_node_225;
	phases BN;
	voltage_B -3608.44-6250j;
	nominal_voltage 7216.88;
}

object node:279 {
	name R4-12-47-2_node_226;
	phases BN;
	voltage_B -3608.44-6250j;
	nominal_voltage 7216.88;
}

object node:280 {
	name R4-12-47-2_node_227;
	phases CN;
	voltage_C -3608.44+6250j;
	nominal_voltage 7216.88;
}

object node:281 {
	name R4-12-47-2_node_228;
	phases CN;
	voltage_C -3608.44+6250j;
	nominal_voltage 7216.88;
}

object node:282 {
	name R4-12-47-2_node_229;
	phases ABCN;
	voltage_A 7216.88+0.0j;
	voltage_B -3608.44-6250j;
	voltage_C -3608.44+6250j;
	nominal_voltage 7216.88;
}

object node:283 {
	name R4-12-47-2_node_230;
	phases ABCN;
	voltage_A 7216.88+0.0j;
	voltage_B -3608.44-6250j;
	voltage_C -3608.44+6250j;
	nominal_voltage 7216.88;
}

object node:284 {
	name R4-12-47-2_node_231;
	phases ABCN;
	voltage_A 7216.88+0.0j;
	voltage_B -3608.44-6250j;
	voltage_C -3608.44+6250j;
	nominal_voltage 7216.88;
}

object node:285 {
	name R4-12-47-2_node_232;
	phases AN;
	voltage_A 7216.88+0.0j;
	nominal_voltage 7216.88;
}

object node:286 {
	name R4-12-47-2_node_233;
	phases ABN;
	voltage_A 7216.88+0.0j;
	voltage_B -3608.44-6250j;
	nominal_voltage 7216.88;
}

object node:287 {
	name R4-12-47-2_node_234;
	phases ABCN;
	voltage_A 7216.88+0.0j;
	voltage_B -3608.44-6250j;
	voltage_C -3608.44+6250j;
	nominal_voltage 7216.88;
}

object node:288 {
	name R4-12-47-2_node_235;
	phases ABN;
	voltage_A 7216.88+0.0j;
	voltage_B -3608.44-6250j;
	nominal_voltage 7216.88;
}

object node:289 {
	name R4-12-47-2_node_236;
	phases BN;
	voltage_B -3608.44-6250j;
	nominal_voltage 7216.88;
}

object node:290 {
	name R4-12-47-2_node_237;
	phases ACN;
	voltage_A 7216.88+0.0j;
	voltage_C -3608.44+6250j;
	nominal_voltage 7216.88;
}

object node:291 {
	name R4-12-47-2_node_238;
	phases ABCN;
	voltage_A 7216.88+0.0j;
	voltage_B -3608.44-6250j;
	voltage_C -3608.44+6250j;
	nominal_voltage 7216.88;
}

object node:292 {
	name R4-12-47-2_node_239;
	phases CN;
	voltage_C -3608.44+6250j;
	nominal_voltage 7216.88;
}

object node:293 {
	name R4-12-47-2_node_240;
	phases ABCN;
	voltage_A 7216.88+0.0j;
	voltage_B -3608.44-6250j;
	voltage_C -3608.44+6250j;
	nominal_voltage 7216.88;
// object recorder {
		// property voltage_A,voltage_B,voltage_C;
		// interval 60;
		// limit 1440;
		// file "293.csv";
	// };
	object complex_assert{
		target voltage_A;
		value +7162.05-45.9055j;
		within 1;
	};
	object complex_assert{
		target voltage_B;
		value -3645.79-6184.86j;
		within 1;
	};
	object complex_assert{
		target voltage_C;
		value -3589.75+6246.15j;
		within 1;
	};	
}

object node:294 {
	name R4-12-47-2_node_241;
	phases CN;
	voltage_C -3608.44+6250j;
	nominal_voltage 7216.88;
}

object node:295 {
	name R4-12-47-2_node_242;
	phases CN;
	voltage_C -3608.44+6250j;
	nominal_voltage 7216.88;
}

object node:296 {
	name R4-12-47-2_node_243;
	phases ABCN;
	voltage_A 7216.88+0.0j;
	voltage_B -3608.44-6250j;
	voltage_C -3608.44+6250j;
	nominal_voltage 7216.88;
}

object node:297 {
	name R4-12-47-2_node_244;
	phases ABCN;
	voltage_A 7216.88+0.0j;
	voltage_B -3608.44-6250j;
	voltage_C -3608.44+6250j;
	nominal_voltage 7216.88;
}

object node:298 {
	name R4-12-47-2_node_245;
	phases ABCN;
	voltage_A 7216.88+0.0j;
	voltage_B -3608.44-6250j;
	voltage_C -3608.44+6250j;
	nominal_voltage 7216.88;
}

object node:299 {
	name R4-12-47-2_node_246;
	phases ABCN;
	voltage_A 7216.88+0.0j;
	voltage_B -3608.44-6250j;
	voltage_C -3608.44+6250j;
	nominal_voltage 7216.88;
}

object node:300 {
	name R4-12-47-2_node_247;
	phases ABCN;
	voltage_A 7216.88+0.0j;
	voltage_B -3608.44-6250j;
	voltage_C -3608.44+6250j;
	nominal_voltage 7216.88;
}

object node:301 {
	name R4-12-47-2_node_248;
	phases ABCN;
	voltage_A 7216.88+0.0j;
	voltage_B -3608.44-6250j;
	voltage_C -3608.44+6250j;
	nominal_voltage 7216.88;
}

object node:302 {
	name R4-12-47-2_node_249;
	phases ABCN;
	voltage_A 7216.88+0.0j;
	voltage_B -3608.44-6250j;
	voltage_C -3608.44+6250j;
	nominal_voltage 7216.88;
}

object node:303 {
	name R4-12-47-2_node_250;
	phases ACN;
	voltage_A 7216.88+0.0j;
	voltage_C -3608.44+6250j;
	nominal_voltage 7216.88;
}

object node:304 {
	name R4-12-47-2_node_251;
	phases ABCN;
	voltage_A 7216.88+0.0j;
	voltage_B -3608.44-6250j;
	voltage_C -3608.44+6250j;
	nominal_voltage 7216.88;
}

object node:305 {
	name R4-12-47-2_node_252;
	phases ABCN;
	voltage_A 7216.88+0.0j;
	voltage_B -3608.44-6250j;
	voltage_C -3608.44+6250j;
	nominal_voltage 7216.88;
}

object node:306 {
	name R4-12-47-2_node_253;
	phases ABCN;
	voltage_A 7216.88+0.0j;
	voltage_B -3608.44-6250j;
	voltage_C -3608.44+6250j;
	nominal_voltage 7216.88;
}

object node:307 {
	name R4-12-47-2_node_254;
	phases CN;
	voltage_C -3608.44+6250j;
	nominal_voltage 7216.88;
}

object node:308 {
	name R4-12-47-2_node_255;
	phases CN;
	voltage_C -3608.44+6250j;
	nominal_voltage 7216.88;
}

object node:309 {
	name R4-12-47-2_node_256;
	phases CN;
	voltage_C -3608.44+6250j;
	nominal_voltage 7216.88;
}

object node:310 {
	name R4-12-47-2_node_257;
	phases ACN;
	voltage_A 7216.88+0.0j;
	voltage_C -3608.44+6250j;
	nominal_voltage 7216.88;
}

object node:311 {
	name R4-12-47-2_node_258;
	phases CN;
	voltage_C -3608.44+6250j;
	nominal_voltage 7216.88;
}

object node:312 {
	name R4-12-47-2_node_259;
	phases ABCN;
	voltage_A 7216.88+0.0j;
	voltage_B -3608.44-6250j;
	voltage_C -3608.44+6250j;
	nominal_voltage 7216.88;
}

object node:313 {
	name R4-12-47-2_node_260;
	phases ABCN;
	voltage_A 7216.88+0.0j;
	voltage_B -3608.44-6250j;
	voltage_C -3608.44+6250j;
	nominal_voltage 7216.88;
}

object node:314 {
	name R4-12-47-2_node_261;
	phases ABCN;
	voltage_A 7216.88+0.0j;
	voltage_B -3608.44-6250j;
	voltage_C -3608.44+6250j;
	nominal_voltage 7216.88;
}

object node:315 {
	name R4-12-47-2_node_262;
	phases ABCN;
	voltage_A 7216.88+0.0j;
	voltage_B -3608.44-6250j;
	voltage_C -3608.44+6250j;
	nominal_voltage 7216.88;
}

object node:316 {
	name R4-12-47-2_node_263;
	parent R4-12-47-2_meter_22;
	phases ABCN;
	voltage_A 7216.88+0.0j;
	voltage_B -3608.44-6250j;
	voltage_C -3608.44+6250j;
	nominal_voltage 7216.88;
}

object node:317 {
	name R4-12-47-2_node_264;
	phases BN;
	voltage_B -3608.44-6250j;
	nominal_voltage 7216.88;
}

object node:318 {
	name R4-12-47-2_node_265;
	phases BN;
	voltage_B -3608.44-6250j;
	nominal_voltage 7216.88;
}

object node:319 {
	name R4-12-47-2_node_266;
	phases AN;
	voltage_A 7216.88+0.0j;
	nominal_voltage 7216.88;
}

object node:320 {
	name R4-12-47-2_node_267;
	phases ABCN;
	voltage_A 7216.88+0.0j;
	voltage_B -3608.44-6250j;
	voltage_C -3608.44+6250j;
	nominal_voltage 7216.88;
}

object node:321 {
	name R4-12-47-2_node_268;
	phases BN;
	voltage_B -3608.44-6250j;
	nominal_voltage 7216.88;
}

object node:322 {
	name R4-12-47-2_node_269;
	phases BN;
	voltage_B -3608.44-6250j;
	nominal_voltage 7216.88;
}

object node:323 {
	name R4-12-47-2_node_270;
	phases AN;
	voltage_A 7216.88+0.0j;
	nominal_voltage 7216.88;
}

object node:324 {
	name R4-12-47-2_node_271;
	phases BN;
	voltage_B -3608.44-6250j;
	nominal_voltage 7216.88;
}

object node:325 {
	name R4-12-47-2_node_272;
	phases AN;
	voltage_A 7216.88+0.0j;
	nominal_voltage 7216.88;
}

object node:1597 {
	name R4-12-47-2_node_273;
	phases ABCN;
	bustype SWING;
	nominal_voltage 7216.88;
	voltage_A 7216.88+0.0j;
	voltage_B -3608.44-6250j;
	voltage_C -3608.44+6250j;
}


object overhead_line:1323 {
	name R4-12-47-2_ol_1;
	phases CN;
	from R4-12-47-2_node_49;
	to R4-12-47-2_node_104;
	length 151.389;
	configuration line_configuration:26;
}

object overhead_line:1324 {
	name R4-12-47-2_ol_2;
	phases CN;
	from R4-12-47-2_node_49;
	to R4-12-47-2_node_48;
	length 98.908;
	configuration line_configuration:27;
}

object overhead_line:1325 {
	name R4-12-47-2_ol_3;
	phases CN;
	from R4-12-47-2_node_51;
	to R4-12-47-2_node_103;
	length 117.873;
	configuration line_configuration:28;
}

object overhead_line:1326 {
	name R4-12-47-2_ol_4;
	phases AN;
	from R4-12-47-2_node_85;
	to R4-12-47-2_node_232;
	length 252.538;
	configuration line_configuration:29;
}

object overhead_line:1327 {
	name R4-12-47-2_ol_5;
	phases ABN;
	from R4-12-47-2_node_16;
	to R4-12-47-2_node_235;
	length 109.076;
	configuration line_configuration:30;
}

object overhead_line:1328 {
	name R4-12-47-2_ol_6;
	phases ABN;
	from R4-12-47-2_node_16;
	to R4-12-47-2_node_233;
	length 319.354;
	configuration line_configuration:31;
}

object overhead_line:1329 {
	name R4-12-47-2_ol_7;
	phases CN;
	from R4-12-47-2_node_48;
	to R4-12-47-2_node_227;
	length 83.159;
	configuration line_configuration:27;
}

object overhead_line:1330 {
	name R4-12-47-2_ol_8;
	phases AN;
	from R4-12-47-2_node_221;
	to R4-12-47-2_node_222;
	length 151.970;
	configuration line_configuration:29;
}

object overhead_line:1331 {
	name R4-12-47-2_ol_9;
	phases AN;
	from R4-12-47-2_node_79;
	to R4-12-47-2_node_221;
	length 153.406;
	configuration line_configuration:29;
}

object overhead_line:1332 {
	name R4-12-47-2_ol_10;
	phases BN;
	from R4-12-47-2_node_225;
	to R4-12-47-2_node_98;
	length 344.945;
	configuration line_configuration:32;
}

object overhead_line:1333 {
	name R4-12-47-2_ol_11;
	phases CN;
	from R4-12-47-2_node_78;
	to R4-12-47-2_node_258;
	length 1245.776;
	configuration line_configuration:26;
}

object overhead_line:1334 {
	name R4-12-47-2_ol_12;
	phases BN;
	from R4-12-47-2_node_80;
	to R4-12-47-2_node_236;
	length 229.814;
	configuration line_configuration:32;
}

object overhead_line:1335 {
	name R4-12-47-2_ol_13;
	phases BN;
	from R4-12-47-2_node_236;
	to R4-12-47-2_node_225;
	length 239.410;
	configuration line_configuration:32;
}

object overhead_line:1336 {
	name R4-12-47-2_ol_14;
	phases BN;
	from R4-12-47-2_node_225;
	to R4-12-47-2_node_226;
	length 212.604;
	configuration line_configuration:32;
}

object overhead_line:1337 {
	name R4-12-47-2_ol_15;
	phases BN;
	from R4-12-47-2_node_81;
	to R4-12-47-2_node_220;
	length 25.109;
	configuration line_configuration:32;
}

object overhead_line:1338 {
	name R4-12-47-2_ol_16;
	phases BN;
	from R4-12-47-2_node_220;
	to R4-12-47-2_node_224;
	length 218.660;
	configuration line_configuration:32;
}

object overhead_line:1339 {
	name R4-12-47-2_ol_17;
	phases ABCN;
	from R4-12-47-2_node_82;
	to R4-12-47-2_node_229;
	length 302.928;
	configuration line_configuration:33;
}

object overhead_line:1340 {
	name R4-12-47-2_ol_18;
	phases ABCN;
	from R4-12-47-2_node_229;
	to R4-12-47-2_node_240;
	length 315.315;
	configuration line_configuration:33;
}

...